16
  
C 	  -0.014795258670	   0.057463751674	   0.248295449821
C 	   1.471804212109	   0.053630671993	   0.487807508865
C 	  -0.636827911375	   0.745912331325	  -0.707407285846
H 	  -0.610346673454	  -0.569891882059	   0.923866496013
H 	  -0.082878524920	   1.379718245540	  -1.407415261262
H 	  -1.722255413252	   0.703520783226	  -0.827261683782
H 	   1.970669143789	   0.723497138685	  -0.230476259385
H 	   1.664246823319	   0.466154943863	   1.495764763096
C 	   2.067182930532	  -1.327090770861	   0.408535185628
C 	   3.009253884411	  -1.706558090784	  -0.456729821764
H 	   1.673793302565	  -2.065244431227	   1.120704492460
H 	   3.392242647193	  -0.964736195207	  -1.170031417540
C 	   3.602390287835	  -3.079280784465	  -0.544856363398
H 	   3.163656429521	  -3.759067061105	   0.200269620870
H 	   3.441123034771	  -3.516342187835	  -1.543754086032
H 	   4.692421085629	  -3.052286462759	  -0.383611337743
