16

C 	   0.117562097653	   0.192295484904	   0.400966227316
C 	   1.260312314132	  -0.190141232011	  -0.186370614760
C 	  -0.642820123209	   1.440732327721	   0.082505688046
H 	  -0.306988897820	  -0.452851919186	   1.181021805552
H 	   1.696794584444	   0.444912260748	  -0.968145548894
C 	   1.986021931187	  -1.413958490478	   0.140870573033
C 	   3.129003026498	  -1.796175780991	  -0.446159691369
H 	   1.549413609943	  -2.049132022477	   0.922477662350
H 	   3.553698895189	  -1.150890359618	  -1.226022245829
C 	   3.889454699332	  -3.044547052697	  -0.127607966537
H 	   3.396205305613	  -3.629551780842	   0.662425657842
H 	   3.989019705614	  -3.687123938107	  -1.017970747159
H 	   4.913501934649	  -2.811258024147	   0.207712560627
H 	  -1.666904171878	   1.207531016438	  -0.252769971348
H 	  -0.742290432249	   2.083276500825	   0.972899701825
H 	  -0.149574479099	   2.025733009919	  -0.707533090695
