14

C 	  -0.080125654886	   0.160552401217	  -0.003643189657
C 	   1.440410880825	   0.049603235437	   0.001922516626
H 	  -0.409795275293	   1.210252987627	  -0.001171203534
H 	  -0.510883292130	  -0.322823478683	  -0.895033942003
H 	  -0.517877228442	  -0.329211999743	   0.880824725662
H 	   1.853536297044	   0.578586161161	  -0.874888644697
H 	   1.846586873580	   0.571666046533	   0.886098142775
C 	   1.944215734529	  -1.392436076706	  -0.001785200063
H 	   1.531081402971	  -1.921459315709	   0.874998393332
H 	   1.538050855001	  -1.914459256203	  -0.885988137806
C 	   3.464752549791	  -1.503381483558	   0.003781010096
H 	   3.902518075437	  -1.013116674474	  -0.880404581311
H 	   3.895490088622	  -1.020503710546	   0.895450704357
H 	   3.794428692948	  -2.553078836354	   0.000719406221
