20

C 	  -0.127389432827	   0.164762003429	  -0.009585897446
C 	   1.395753152482	   0.097206542749	  -0.006985487047
H 	  -0.486750919072	   1.204666602662	  -0.010129616251
H 	  -0.546008982599	  -0.334064811670	  -0.898198808747
H 	  -0.549018747492	  -0.334180338168	   0.877538775784
H 	   1.791540451539	   0.634665335261	  -0.886360123222
H 	   1.788469500549	   0.633581040465	   0.874420869657
C 	   1.939284494646	  -1.329522450914	  -0.006982726146
H 	   1.544282300214	  -1.869827964073	   0.872447556842
H 	   1.548930641761	  -1.867996031372	  -0.889603726332
C 	   3.463168828420	  -1.406516881432	  -0.002977059830
H 	   3.858281309778	  -0.865011936663	  -0.881618495674
H 	   3.853364035172	  -0.869200271587	   0.880420203257
C 	   4.006819881946	  -2.833195635956	  -0.004921308809
H 	   3.609288507785	  -3.372681335677	   0.872419518830
H 	   3.615999136970	  -3.367629639173	  -0.888350917197
C 	   5.529967608557	  -2.900539951122	   0.000711479300
H 	   5.953441485128	  -2.398338748929	  -0.883694029487
H 	   5.946552259322	  -2.404819736253	   0.892019360465
H 	   5.889524487716	  -3.940375791575	  -0.001689567948
