26

C 	  -0.141025398620	   0.203879063712	  -0.017322242453
C 	   1.381642437921	   0.126655322701	  -0.014783718609
H 	  -0.493785184177	   1.246023168190	  -0.021284261858
H 	  -0.562956482626	  -0.295280208125	  -0.904174873247
H 	  -0.565592873403	  -0.289425074946	   0.871546518636
H 	   1.780753348241	   0.658721288878	  -0.895922706326
H 	   1.778026188650	   0.663295740943	   0.864808848454
C 	   1.916128124914	  -1.303452473529	  -0.010299001408
H 	   1.518160802146	  -1.838541399405	   0.870941796965
H 	   1.522315093498	  -1.842447626596	  -0.891025975323
C 	   3.439558662484	  -1.389507937042	  -0.006467375391
H 	   3.837329356194	  -0.853538222970	  -0.887041358693
H 	   3.832954019911	  -0.851540173383	   0.874852807573
C 	   3.973596699213	  -2.818949249964	  -0.003584718735
H 	   3.575073003327	  -3.355375362052	   0.876366223581
H 	   3.581189623833	  -3.356568649941	  -0.885556077577
C 	   5.497057229383	  -2.904471631490	   0.001791967296
H 	   5.895815436303	  -2.366934371217	  -0.877598416751
H 	   5.889513347289	  -2.367459062392	   0.884337130488
C 	   6.032499755813	  -4.334214355355	   0.003254644244
H 	   5.631710465917	  -4.869335416867	   0.881778194069
H 	   5.638734158592	  -4.868456556734	  -0.878974695545
C 	   7.555245225634	  -4.410030587409	   0.009288614315
H 	   7.981501906434	  -3.912702176016	  -0.876531443193
H 	   7.974400554841	  -3.913918387881	   0.899169505548
H 	   7.909154498285	  -5.451795661113	   0.009990613941
