18

C 	   0.093312992467	   0.193582401856	   0.236260938107
C 	   1.334805385171	  -0.083300220563	  -0.183606485569
H 	  -0.434534072745	   1.090463041572	  -0.094486880811
H 	  -0.434948465182	  -0.471230452599	   0.926477364428
H 	   1.832996340074	   0.606123486082	  -0.875370541960
C 	   2.094250646615	  -1.258795879908	   0.217278580180
H 	   1.603748834128	  -1.954221473540	   0.909417887088
C 	   3.343860591968	  -1.532047125292	  -0.208949894567
H 	   3.832370278077	  -0.835177311193	  -0.901072658941
C 	   4.104012222910	  -2.701839503037	   0.187945267767
H 	   3.615574126578	  -3.398709642018	   0.880115839490
C 	   5.353607634661	  -2.975006129402	  -0.238379918885
H 	   5.843972221242	  -2.279528386015	  -0.930564987200
C 	   6.113271408488	  -4.150382232645	   0.162418469141
H 	   5.615387042010	  -4.839821099682	   0.854388793313
C 	   7.354719984842	  -4.427023335725	  -0.257740100780
H 	   7.882625661233	  -3.762140762643	  -0.948159778446
H 	   7.882887167461	  -5.323735375252	   0.072948107648
